2
Lattice="12.0 0.0 0.0 0.0 12.0 0.0 0.0 0.0 13.245956" Properties=species:S:1:pos:R:3:initial_magmoms:R:1:forces:R:3:magmoms:R:1 energy=-8.730461351719137 dipole="-2.3991342766337306e-14 -2.5845341113343192e-14 -4.040185501277398e-12" magmom=1.9999992038526893 free_energy=-8.730461351719137 pbc="F F F"
O        6.00000000       6.00000000       7.23431587       1.00000000       0.00000000       0.00000000      -0.00871792       0.71563574
O        6.00000000       6.00000000       6.01164013       1.00000000       0.00000000       0.00000000       0.00871792       0.71563574
