6
Lattice="16.0 0.0 0.0 0.0 16.0 0.0 0.0 0.0 16.0" Properties=species:S:1:pos:R:3:tags:I:1:forces:R:3:magmoms:R:1 energy=-5.2678761492532695 dipole="0.023048093309168773 -0.015338901776471995 -0.006561896515176787" magmom=0.0 free_energy=-5.267884371063305 pbc="F F F"
Na       8.51354193       7.55043206       9.71750334        0      -0.00275723      -0.00438620      -0.00702064       0.00000000
Na      11.65908863       6.90429487       8.94992052        1      -0.00082616       0.00271957       0.00346038       0.00000000
Na       9.40755702       5.63421333       6.91283320        2      -0.01344827       0.00286943       0.00501623       0.00000000
Na       6.97009437       4.43488428       5.04632028        3      -0.00306195      -0.00099290      -0.00227361       0.00000000
Na       6.00029815       6.25348504       7.62469044        4       0.01618315      -0.00064441       0.00248023       0.00000000
Na       5.30175688       8.05438405      10.30390190        5       0.00388498       0.00049928      -0.00171772       0.00000000
